54
Name of structure to be created
As	0	0	0
C	1.3575	1.3575	1.3575
As	2.715	2.715	0
C	4.0725	4.0725	1.3575
As	5.43	5.43	0
C	6.7875	6.7875	1.3575
As	2.715	0	2.715
C	4.0725	1.3575	4.0725
As	5.43	2.715	2.715
C	6.7875	4.0725	4.0725
As	8.145	5.43	2.715
C	9.5025	6.7875	4.0725
As	5.43	0	5.43
C	6.7875	1.3575	6.7875
As	8.145	2.715	5.43
C	9.5025	4.0725	6.7875
As	10.86	5.43	5.43
C	12.2175	6.7875	6.7875
As	0	2.715	2.715
C	1.3575	4.0725	4.0725
As	2.715	5.43	2.715
C	4.0725	6.7875	4.0725
As	5.43	8.145	2.715
C	6.7875	9.5025	4.0725
As	2.715	2.715	5.43
C	4.0725	4.0725	6.7875
As	5.43	5.43	5.43
C	6.7875	6.7875	6.7875
As	8.145	8.145	5.43
C	9.5025	9.5025	6.7875
As	5.43	2.715	8.145
C	6.7875	4.0725	9.5025
As	8.145	5.43	8.145
C	9.5025	6.7875	9.5025
As	10.86	8.145	8.145
C	12.2175	9.5025	9.5025
As	0	5.43	5.43
C	1.3575	6.7875	6.7875
As	2.715	8.145	5.43
C	4.0725	9.5025	6.7875
As	5.43	10.86	5.43
C	6.7875	12.2175	6.7875
As	2.715	5.43	8.145
C	4.0725	6.7875	9.5025
As	5.43	8.145	8.145
C	6.7875	9.5025	9.5025
As	8.145	10.86	8.145
C	9.5025	12.2175	9.5025
As	5.43	5.43	10.86
C	6.7875	6.7875	12.2175
As	8.145	8.145	10.86
C	9.5025	9.5025	12.2175
As	10.86	10.86	10.86
C	12.2175	12.2175	12.2175
