414
Name of structure to be created
Si	43.44	21.72	21.72
Si	38.01	21.72	21.72
Si	39.3675	23.0775	23.0775
Si	40.725	24.435	21.72
Si	42.0825	25.7925	23.0775
Si	43.44	27.15	21.72
Si	40.725	21.72	24.435
Si	42.0825	23.0775	25.7925
Si	43.44	24.435	24.435
Si	43.44	21.72	27.15
Si	32.58	21.72	21.72
Si	33.9375	23.0775	23.0775
Si	35.295	24.435	21.72
Si	36.6525	25.7925	23.0775
Si	38.01	27.15	21.72
Si	39.3675	28.5075	23.0775
Si	40.725	29.865	21.72
Si	42.0825	31.2225	23.0775
Si	43.44	32.58	21.72
Si	35.295	21.72	24.435
Si	36.6525	23.0775	25.7925
Si	38.01	24.435	24.435
Si	39.3675	25.7925	25.7925
Si	40.725	27.15	24.435
Si	42.0825	28.5075	25.7925
Si	43.44	29.865	24.435
Si	38.01	21.72	27.15
Si	39.3675	23.0775	28.5075
Si	40.725	24.435	27.15
Si	42.0825	25.7925	28.5075
Si	43.44	27.15	27.15
Si	40.725	21.72	29.865
Si	42.0825	23.0775	31.2225
Si	43.44	24.435	29.865
Si	43.44	21.72	32.58
Si	27.15	21.72	21.72
Si	28.5075	23.0775	23.0775
Si	29.865	24.435	21.72
Si	31.2225	25.7925	23.0775
Si	32.58	27.15	21.72
Si	33.9375	28.5075	23.0775
Si	35.295	29.865	21.72
Si	36.6525	31.2225	23.0775
Si	38.01	32.58	21.72
Si	39.3675	33.9375	23.0775
Si	40.725	35.295	21.72
Si	42.0825	36.6525	23.0775
Si	43.44	38.01	21.72
Si	29.865	21.72	24.435
Si	31.2225	23.0775	25.7925
Si	32.58	24.435	24.435
Si	33.9375	25.7925	25.7925
Si	35.295	27.15	24.435
Si	36.6525	28.5075	25.7925
Si	38.01	29.865	24.435
Si	39.3675	31.2225	25.7925
Si	40.725	32.58	24.435
Si	42.0825	33.9375	25.7925
Si	43.44	35.295	24.435
Si	32.58	21.72	27.15
Si	33.9375	23.0775	28.5075
Si	35.295	24.435	27.15
Si	36.6525	25.7925	28.5075
Si	38.01	27.15	27.15
Si	39.3675	28.5075	28.5075
Si	40.725	29.865	27.15
Si	42.0825	31.2225	28.5075
Si	43.44	32.58	27.15
Si	35.295	21.72	29.865
Si	36.6525	23.0775	31.2225
Si	38.01	24.435	29.865
Si	39.3675	25.7925	31.2225
Si	40.725	27.15	29.865
Si	42.0825	28.5075	31.2225
Si	43.44	29.865	29.865
Si	38.01	21.72	32.58
Si	39.3675	23.0775	33.9375
Si	40.725	24.435	32.58
Si	42.0825	25.7925	33.9375
Si	43.44	27.15	32.58
Si	40.725	21.72	35.295
Si	43.44	24.435	35.295
Si	21.72	21.72	21.72
Si	23.0775	23.0775	23.0775
Si	24.435	24.435	21.72
Si	25.7925	25.7925	23.0775
Si	27.15	27.15	21.72
Si	28.5075	28.5075	23.0775
Si	29.865	29.865	21.72
Si	31.2225	31.2225	23.0775
Si	32.58	32.58	21.72
Si	33.9375	33.9375	23.0775
Si	35.295	35.295	21.72
Si	36.6525	36.6525	23.0775
Si	38.01	38.01	21.72
Si	39.3675	39.3675	23.0775
Si	40.725	40.725	21.72
Si	42.0825	42.0825	23.0775
Si	24.435	21.72	24.435
Si	25.7925	23.0775	25.7925
Si	27.15	24.435	24.435
Si	28.5075	25.7925	25.7925
Si	29.865	27.15	24.435
Si	31.2225	28.5075	25.7925
Si	32.58	29.865	24.435
Si	33.9375	31.2225	25.7925
Si	35.295	32.58	24.435
Si	36.6525	33.9375	25.7925
Si	38.01	35.295	24.435
Si	39.3675	36.6525	25.7925
Si	40.725	38.01	24.435
Si	42.0825	39.3675	25.7925
Si	43.44	40.725	24.435
Si	27.15	21.72	27.15
Si	28.5075	23.0775	28.5075
Si	29.865	24.435	27.15
Si	31.2225	25.7925	28.5075
Si	32.58	27.15	27.15
Si	33.9375	28.5075	28.5075
Si	35.295	29.865	27.15
Si	36.6525	31.2225	28.5075
Si	38.01	32.58	27.15
Si	39.3675	33.9375	28.5075
Si	40.725	35.295	27.15
Si	42.0825	36.6525	28.5075
Si	43.44	38.01	27.15
Si	29.865	21.72	29.865
Si	31.2225	23.0775	31.2225
Si	32.58	24.435	29.865
Si	33.9375	25.7925	31.2225
Si	35.295	27.15	29.865
Si	36.6525	28.5075	31.2225
Si	38.01	29.865	29.865
Si	39.3675	31.2225	31.2225
Si	40.725	32.58	29.865
Si	42.0825	33.9375	31.2225
Si	43.44	35.295	29.865
Si	32.58	21.72	32.58
Si	33.9375	23.0775	33.9375
Si	35.295	24.435	32.58
Si	36.6525	25.7925	33.9375
Si	38.01	27.15	32.58
Si	39.3675	28.5075	33.9375
Si	40.725	29.865	32.58
Si	43.44	32.58	32.58
Si	35.295	21.72	35.295
Si	36.6525	23.0775	36.6525
Si	38.01	24.435	35.295
Si	40.725	27.15	35.295
Si	38.01	21.72	38.01
Si	21.72	27.15	21.72
Si	23.0775	28.5075	23.0775
Si	24.435	29.865	21.72
Si	25.7925	31.2225	23.0775
Si	27.15	32.58	21.72
Si	28.5075	33.9375	23.0775
Si	29.865	35.295	21.72
Si	31.2225	36.6525	23.0775
Si	32.58	38.01	21.72
Si	33.9375	39.3675	23.0775
Si	35.295	40.725	21.72
Si	36.6525	42.0825	23.0775
Si	38.01	43.44	21.72
Si	21.72	24.435	24.435
Si	23.0775	25.7925	25.7925
Si	24.435	27.15	24.435
Si	25.7925	28.5075	25.7925
Si	27.15	29.865	24.435
Si	28.5075	31.2225	25.7925
Si	29.865	32.58	24.435
Si	31.2225	33.9375	25.7925
Si	32.58	35.295	24.435
Si	33.9375	36.6525	25.7925
Si	35.295	38.01	24.435
Si	36.6525	39.3675	25.7925
Si	38.01	40.725	24.435
Si	39.3675	42.0825	25.7925
Si	40.725	43.44	24.435
Si	21.72	21.72	27.15
Si	23.0775	23.0775	28.5075
Si	24.435	24.435	27.15
Si	25.7925	25.7925	28.5075
Si	27.15	27.15	27.15
Si	28.5075	28.5075	28.5075
Si	29.865	29.865	27.15
Si	31.2225	31.2225	28.5075
Si	32.58	32.58	27.15
Si	33.9375	33.9375	28.5075
Si	35.295	35.295	27.15
Si	36.6525	36.6525	28.5075
Si	38.01	38.01	27.15
Si	39.3675	39.3675	28.5075
Si	40.725	40.725	27.15
Si	42.0825	42.0825	28.5075
Si	43.44	43.44	27.15
Si	24.435	21.72	29.865
Si	25.7925	23.0775	31.2225
Si	27.15	24.435	29.865
Si	28.5075	25.7925	31.2225
Si	29.865	27.15	29.865
Si	31.2225	28.5075	31.2225
Si	32.58	29.865	29.865
Si	33.9375	31.2225	31.2225
Si	35.295	32.58	29.865
Si	36.6525	33.9375	31.2225
Si	38.01	35.295	29.865
Si	39.3675	36.6525	31.2225
Si	40.725	38.01	29.865
Si	43.44	40.725	29.865
Si	27.15	21.72	32.58
Si	28.5075	23.0775	33.9375
Si	29.865	24.435	32.58
Si	31.2225	25.7925	33.9375
Si	32.58	27.15	32.58
Si	33.9375	28.5075	33.9375
Si	35.295	29.865	32.58
Si	36.6525	31.2225	33.9375
Si	38.01	32.58	32.58
Si	40.725	35.295	32.58
Si	29.865	21.72	35.295
Si	31.2225	23.0775	36.6525
Si	32.58	24.435	35.295
Si	33.9375	25.7925	36.6525
Si	35.295	27.15	35.295
Si	38.01	29.865	35.295
Si	32.58	21.72	38.01
Si	35.295	24.435	38.01
Si	21.72	32.58	21.72
Si	23.0775	33.9375	23.0775
Si	24.435	35.295	21.72
Si	25.7925	36.6525	23.0775
Si	27.15	38.01	21.72
Si	28.5075	39.3675	23.0775
Si	29.865	40.725	21.72
Si	31.2225	42.0825	23.0775
Si	32.58	43.44	21.72
Si	21.72	29.865	24.435
Si	23.0775	31.2225	25.7925
Si	24.435	32.58	24.435
Si	25.7925	33.9375	25.7925
Si	27.15	35.295	24.435
Si	28.5075	36.6525	25.7925
Si	29.865	38.01	24.435
Si	31.2225	39.3675	25.7925
Si	32.58	40.725	24.435
Si	33.9375	42.0825	25.7925
Si	35.295	43.44	24.435
Si	21.72	27.15	27.15
Si	23.0775	28.5075	28.5075
Si	24.435	29.865	27.15
Si	25.7925	31.2225	28.5075
Si	27.15	32.58	27.15
Si	28.5075	33.9375	28.5075
Si	29.865	35.295	27.15
Si	31.2225	36.6525	28.5075
Si	32.58	38.01	27.15
Si	33.9375	39.3675	28.5075
Si	35.295	40.725	27.15
Si	36.6525	42.0825	28.5075
Si	38.01	43.44	27.15
Si	21.72	24.435	29.865
Si	23.0775	25.7925	31.2225
Si	24.435	27.15	29.865
Si	25.7925	28.5075	31.2225
Si	27.15	29.865	29.865
Si	28.5075	31.2225	31.2225
Si	29.865	32.58	29.865
Si	31.2225	33.9375	31.2225
Si	32.58	35.295	29.865
Si	33.9375	36.6525	31.2225
Si	35.295	38.01	29.865
Si	36.6525	39.3675	31.2225
Si	38.01	40.725	29.865
Si	40.725	43.44	29.865
Si	21.72	21.72	32.58
Si	23.0775	23.0775	33.9375
Si	24.435	24.435	32.58
Si	25.7925	25.7925	33.9375
Si	27.15	27.15	32.58
Si	28.5075	28.5075	33.9375
Si	29.865	29.865	32.58
Si	31.2225	31.2225	33.9375
Si	32.58	32.58	32.58
Si	33.9375	33.9375	33.9375
Si	35.295	35.295	32.58
Si	38.01	38.01	32.58
Si	24.435	21.72	35.295
Si	25.7925	23.0775	36.6525
Si	27.15	24.435	35.295
Si	28.5075	25.7925	36.6525
Si	29.865	27.15	35.295
Si	31.2225	28.5075	36.6525
Si	32.58	29.865	35.295
Si	35.295	32.58	35.295
Si	27.15	21.72	38.01
Si	28.5075	23.0775	39.3675
Si	29.865	24.435	38.01
Si	32.58	27.15	38.01
Si	29.865	21.72	40.725
Si	21.72	38.01	21.72
Si	23.0775	39.3675	23.0775
Si	24.435	40.725	21.72
Si	25.7925	42.0825	23.0775
Si	27.15	43.44	21.72
Si	21.72	35.295	24.435
Si	23.0775	36.6525	25.7925
Si	24.435	38.01	24.435
Si	25.7925	39.3675	25.7925
Si	27.15	40.725	24.435
Si	28.5075	42.0825	25.7925
Si	29.865	43.44	24.435
Si	21.72	32.58	27.15
Si	23.0775	33.9375	28.5075
Si	24.435	35.295	27.15
Si	25.7925	36.6525	28.5075
Si	27.15	38.01	27.15
Si	28.5075	39.3675	28.5075
Si	29.865	40.725	27.15
Si	31.2225	42.0825	28.5075
Si	32.58	43.44	27.15
Si	21.72	29.865	29.865
Si	23.0775	31.2225	31.2225
Si	24.435	32.58	29.865
Si	25.7925	33.9375	31.2225
Si	27.15	35.295	29.865
Si	28.5075	36.6525	31.2225
Si	29.865	38.01	29.865
Si	31.2225	39.3675	31.2225
Si	32.58	40.725	29.865
Si	33.9375	42.0825	31.2225
Si	35.295	43.44	29.865
Si	21.72	27.15	32.58
Si	23.0775	28.5075	33.9375
Si	24.435	29.865	32.58
Si	25.7925	31.2225	33.9375
Si	27.15	32.58	32.58
Si	28.5075	33.9375	33.9375
Si	29.865	35.295	32.58
Si	31.2225	36.6525	33.9375
Si	32.58	38.01	32.58
Si	35.295	40.725	32.58
Si	21.72	24.435	35.295
Si	23.0775	25.7925	36.6525
Si	24.435	27.15	35.295
Si	25.7925	28.5075	36.6525
Si	27.15	29.865	35.295
Si	28.5075	31.2225	36.6525
Si	29.865	32.58	35.295
Si	32.58	35.295	35.295
Si	21.72	21.72	38.01
Si	23.0775	23.0775	39.3675
Si	24.435	24.435	38.01
Si	25.7925	25.7925	39.3675
Si	27.15	27.15	38.01
Si	29.865	29.865	38.01
Si	24.435	21.72	40.725
Si	27.15	24.435	40.725
Si	21.72	43.44	21.72
Si	21.72	40.725	24.435
Si	23.0775	42.0825	25.7925
Si	24.435	43.44	24.435
Si	21.72	38.01	27.15
Si	23.0775	39.3675	28.5075
Si	24.435	40.725	27.15
Si	25.7925	42.0825	28.5075
Si	27.15	43.44	27.15
Si	21.72	35.295	29.865
Si	23.0775	36.6525	31.2225
Si	24.435	38.01	29.865
Si	25.7925	39.3675	31.2225
Si	27.15	40.725	29.865
Si	28.5075	42.0825	31.2225
Si	29.865	43.44	29.865
Si	21.72	32.58	32.58
Si	23.0775	33.9375	33.9375
Si	24.435	35.295	32.58
Si	25.7925	36.6525	33.9375
Si	27.15	38.01	32.58
Si	28.5075	39.3675	33.9375
Si	29.865	40.725	32.58
Si	32.58	43.44	32.58
Si	21.72	29.865	35.295
Si	23.0775	31.2225	36.6525
Si	24.435	32.58	35.295
Si	25.7925	33.9375	36.6525
Si	27.15	35.295	35.295
Si	29.865	38.01	35.295
Si	21.72	27.15	38.01
Si	23.0775	28.5075	39.3675
Si	24.435	29.865	38.01
Si	27.15	32.58	38.01
Si	21.72	24.435	40.725
Si	24.435	27.15	40.725
Si	21.72	21.72	43.44
Si	21.72	43.44	27.15
Si	21.72	40.725	29.865
Si	23.0775	42.0825	31.2225
Si	24.435	43.44	29.865
Si	21.72	38.01	32.58
Si	23.0775	39.3675	33.9375
Si	24.435	40.725	32.58
Si	25.7925	42.0825	33.9375
Si	27.15	43.44	32.58
Si	21.72	35.295	35.295
Si	23.0775	36.6525	36.6525
Si	24.435	38.01	35.295
Si	27.15	40.725	35.295
Si	21.72	32.58	38.01
Si	24.435	35.295	38.01
Si	21.72	29.865	40.725
Si	21.72	43.44	32.58
Si	21.72	40.725	35.295
Si	24.435	43.44	35.295
Si	21.72	38.01	38.01
